# generated using pymatgen
data_Sc2O3
_symmetry_space_group_name_H-M   'P 1'
_cell_length_a   8.59300024
_cell_length_b   8.59300024
_cell_length_c   8.59300024
_cell_angle_alpha   109.47122063
_cell_angle_beta   109.47122063
_cell_angle_gamma   109.47122063
_symmetry_Int_Tables_number   1
_chemical_formula_structural   Sc2O3
_chemical_formula_sum   'Sc16 O24'
_cell_volume   488.44152731
_cell_formula_units_Z   8
loop_
 _symmetry_equiv_pos_site_id
 _symmetry_equiv_pos_as_xyz
  1  'x, y, z'
loop_
 _atom_site_type_symbol
 _atom_site_label
 _atom_site_symmetry_multiplicity
 _atom_site_fract_x
 _atom_site_fract_y
 _atom_site_fract_z
 _atom_site_occupancy
  Sc  Sc0  1  0.50000000  0.00000000  0.50000000  1
  Sc  Sc1  1  0.50000000  0.50000000  0.00000000  1
  Sc  Sc2  1  0.00000000  0.50000000  0.50000000  1
  Sc  Sc3  1  0.00000000  0.00000000  0.00000000  1
  Sc  Sc4  1  0.78568000  0.25000000  0.03568000  1
  Sc  Sc5  1  0.71432000  0.75000000  0.46432000  1
  Sc  Sc6  1  0.25000000  0.03568000  0.78568000  1
  Sc  Sc7  1  0.75000000  0.46432000  0.71432000  1
  Sc  Sc8  1  0.03568000  0.78568000  0.25000000  1
  Sc  Sc9  1  0.46432000  0.71432000  0.75000000  1
  Sc  Sc10  1  0.21432000  0.75000000  0.96432000  1
  Sc  Sc11  1  0.28568000  0.25000000  0.53568000  1
  Sc  Sc12  1  0.75000000  0.96432000  0.21432000  1
  Sc  Sc13  1  0.25000000  0.53568000  0.28568000  1
  Sc  Sc14  1  0.96432000  0.21432000  0.75000000  1
  Sc  Sc15  1  0.53568000  0.28568000  0.25000000  1
  O  O16  1  0.48902600  0.22645200  0.45421300  1
  O  O17  1  0.22776100  0.27354800  0.76257400  1
  O  O18  1  0.01097400  0.46518700  0.73742600  1
  O  O19  1  0.27223900  0.03481300  0.04578700  1
  O  O20  1  0.22645200  0.45421300  0.48902600  1
  O  O21  1  0.27354800  0.76257400  0.22776100  1
  O  O22  1  0.46518700  0.73742600  0.01097400  1
  O  O23  1  0.03481300  0.04578700  0.27223900  1
  O  O24  1  0.45421300  0.48902600  0.22645200  1
  O  O25  1  0.76257400  0.22776100  0.27354800  1
  O  O26  1  0.73742600  0.01097400  0.46518700  1
  O  O27  1  0.04578700  0.27223900  0.03481300  1
  O  O28  1  0.51097400  0.77354800  0.54578700  1
  O  O29  1  0.77223900  0.72645200  0.23742600  1
  O  O30  1  0.98902600  0.53481300  0.26257400  1
  O  O31  1  0.72776100  0.96518700  0.95421300  1
  O  O32  1  0.77354800  0.54578700  0.51097400  1
  O  O33  1  0.72645200  0.23742600  0.77223900  1
  O  O34  1  0.53481300  0.26257400  0.98902600  1
  O  O35  1  0.96518700  0.95421300  0.72776100  1
  O  O36  1  0.54578700  0.51097400  0.77354800  1
  O  O37  1  0.23742600  0.77223900  0.72645200  1
  O  O38  1  0.26257400  0.98902600  0.53481300  1
  O  O39  1  0.95421300  0.72776100  0.96518700  1
