# generated using pymatgen
data_Li7P3S11
_symmetry_space_group_name_H-M   'P 1'
_cell_length_a   6.18883800
_cell_length_b   12.62787574
_cell_length_c   12.67313285
_cell_angle_alpha   107.48331704
_cell_angle_beta   103.55243778
_cell_angle_gamma   101.86041383
_symmetry_Int_Tables_number   1
_chemical_formula_structural   Li7P3S11
_chemical_formula_sum   'Li14 P6 S22'
_cell_volume   876.76726455
_cell_formula_units_Z   2
loop_
 _symmetry_equiv_pos_site_id
 _symmetry_equiv_pos_as_xyz
  1  'x, y, z'
loop_
 _atom_site_type_symbol
 _atom_site_label
 _atom_site_symmetry_multiplicity
 _atom_site_fract_x
 _atom_site_fract_y
 _atom_site_fract_z
 _atom_site_occupancy
  Li  Li0  1  0.73546800  0.66833100  0.10393200  1
  Li  Li1  1  0.21349700  0.03562700  0.75422200  1
  Li  Li2  1  0.62351800  0.34317400  0.50770200  1
  Li  Li3  1  0.57664800  0.86468200  0.87873100  1
  Li  Li4  1  0.69638800  0.17870000  0.70547200  1
  Li  Li5  1  0.30361200  0.82130000  0.29452800  1
  Li  Li6  1  0.78650300  0.96437300  0.24577800  1
  Li  Li7  1  0.86272100  0.38272500  0.11284100  1
  Li  Li8  1  0.98591100  0.68099700  0.67998500  1
  Li  Li9  1  0.13727900  0.61727500  0.88715900  1
  Li  Li10  1  0.26453200  0.33166900  0.89606800  1
  Li  Li11  1  0.42335200  0.13531800  0.12126900  1
  Li  Li12  1  0.37648200  0.65682600  0.49229800  1
  Li  Li13  1  0.01408900  0.31900300  0.32001500  1
  P  P14  1  0.51184900  0.47554800  0.27764000  1
  P  P15  1  0.83047100  0.78849000  0.45443000  1
  P  P16  1  0.87665600  0.16711400  0.94396700  1
  P  P17  1  0.12334400  0.83288600  0.05603300  1
  P  P18  1  0.48815100  0.52445200  0.72236000  1
  P  P19  1  0.16952900  0.21151000  0.54557000  1
  S  S20  1  0.90785000  0.81641300  0.31716500  1
  S  S21  1  0.20378200  0.50207900  0.29503100  1
  S  S22  1  0.78096200  0.60430900  0.43124300  1
  S  S23  1  0.44399800  0.15975300  0.51698700  1
  S  S24  1  0.56179800  0.48163200  0.12777000  1
  S  S25  1  0.43820200  0.51836800  0.87223000  1
  S  S26  1  0.55600200  0.84024700  0.48301300  1
  S  S27  1  0.10539600  0.83675200  0.60133600  1
  S  S28  1  0.36384400  0.97120800  0.19645000  1
  S  S29  1  0.20547200  0.15431600  0.94867200  1
  S  S30  1  0.57051900  0.33136800  0.30713000  1
  S  S31  1  0.89460400  0.16324800  0.39866400  1
  S  S32  1  0.21903800  0.39569100  0.56875700  1
  S  S33  1  0.82768700  0.17665700  0.10104800  1
  S  S34  1  0.63615600  0.02879200  0.80355000  1
  S  S35  1  0.79452800  0.84568400  0.05132800  1
  S  S36  1  0.09215000  0.18358700  0.68283500  1
  S  S37  1  0.85534400  0.31711400  0.91260400  1
  S  S38  1  0.79621800  0.49792100  0.70496900  1
  S  S39  1  0.42948100  0.66863200  0.69287000  1
  S  S40  1  0.17231300  0.82334300  0.89895200  1
  S  S41  1  0.14465600  0.68288600  0.08739600  1
