# generated using pymatgen
data_NaNO2
_symmetry_space_group_name_H-M   'P 1'
_cell_length_a   4.32301506
_cell_length_b   4.32301506
_cell_length_c   4.32301506
_cell_angle_alpha   130.31511988
_cell_angle_beta   101.25835716
_cell_angle_gamma   99.07780784
_symmetry_Int_Tables_number   1
_chemical_formula_structural   NaNO2
_chemical_formula_sum   'Na1 N1 O2'
_cell_volume   55.88779902
_cell_formula_units_Z   1
loop_
 _symmetry_equiv_pos_site_id
 _symmetry_equiv_pos_as_xyz
  1  'x, y, z'
loop_
 _atom_site_type_symbol
 _atom_site_label
 _atom_site_symmetry_multiplicity
 _atom_site_fract_x
 _atom_site_fract_y
 _atom_site_fract_z
 _atom_site_occupancy
  Na  Na0  1  0.41430100  0.41430100  0.00000000  1
  N  N1  1  0.87623600  0.87623600  0.00000000  1
  O  O2  1  0.80409900  0.99918200  0.80491700  1
  O  O3  1  0.19426400  0.99918200  0.19508300  1
